# generated using pymatgen
data_LiTb3
_symmetry_space_group_name_H-M   'P 1'
_cell_length_a   5.95128403
_cell_length_b   5.95128403
_cell_length_c   5.95128403
_cell_angle_alpha   131.39739778
_cell_angle_beta   131.39739778
_cell_angle_gamma   71.18245305
_symmetry_Int_Tables_number   1
_chemical_formula_structural   LiTb3
_chemical_formula_sum   'Li1 Tb3'
_cell_volume   116.11749662
_cell_formula_units_Z   1
loop_
 _symmetry_equiv_pos_site_id
 _symmetry_equiv_pos_as_xyz
  1  'x, y, z'
loop_
 _atom_site_type_symbol
 _atom_site_label
 _atom_site_symmetry_multiplicity
 _atom_site_fract_x
 _atom_site_fract_y
 _atom_site_fract_z
 _atom_site_occupancy
  Li  Li0  1  0.00000000  0.00000000  0.00000000  1
  Tb  Tb1  1  0.75000000  0.25000000  0.50000000  1
  Tb  Tb2  1  0.25000000  0.75000000  0.50000000  1
  Tb  Tb3  1  0.50000000  0.50000000  0.00000000  1
