# generated using pymatgen
data_Li(Mg2Si)2
_symmetry_space_group_name_H-M   'P 1'
_cell_length_a   4.56144400
_cell_length_b   4.56144400
_cell_length_c   6.52843800
_cell_angle_alpha   90.00000000
_cell_angle_beta   90.00000000
_cell_angle_gamma   90.00000000
_symmetry_Int_Tables_number   1
_chemical_formula_structural   Li(Mg2Si)2
_chemical_formula_sum   'Li1 Mg4 Si2'
_cell_volume   135.83571684
_cell_formula_units_Z   1
loop_
 _symmetry_equiv_pos_site_id
 _symmetry_equiv_pos_as_xyz
  1  'x, y, z'
loop_
 _atom_site_type_symbol
 _atom_site_label
 _atom_site_symmetry_multiplicity
 _atom_site_fract_x
 _atom_site_fract_y
 _atom_site_fract_z
 _atom_site_occupancy
  Li  Li0  1  0.50000000  0.50000000  0.00000000  1
  Mg  Mg1  1  0.00000000  0.50000000  0.25964900  1
  Mg  Mg2  1  0.50000000  0.00000000  0.74035100  1
  Mg  Mg3  1  0.00000000  0.50000000  0.74035100  1
  Mg  Mg4  1  0.50000000  0.00000000  0.25964900  1
  Si  Si5  1  0.00000000  0.00000000  0.00000000  1
  Si  Si6  1  0.50000000  0.50000000  0.50000000  1
