# generated using pymatgen
data_Li3YF6
_symmetry_space_group_name_H-M   'P 1'
_cell_length_a   5.86559500
_cell_length_b   5.86559500
_cell_length_c   5.86559500
_cell_angle_alpha   60.00000000
_cell_angle_beta   60.00000000
_cell_angle_gamma   60.00000000
_symmetry_Int_Tables_number   1
_chemical_formula_structural   Li3YF6
_chemical_formula_sum   'Li3 Y1 F6'
_cell_volume   142.69909583
_cell_formula_units_Z   1
loop_
 _symmetry_equiv_pos_site_id
 _symmetry_equiv_pos_as_xyz
  1  'x, y, z'
loop_
 _atom_site_type_symbol
 _atom_site_label
 _atom_site_symmetry_multiplicity
 _atom_site_fract_x
 _atom_site_fract_y
 _atom_site_fract_z
 _atom_site_occupancy
  Li  Li0  1  0.75000000  0.75000000  0.75000000  1
  Li  Li1  1  0.25000000  0.25000000  0.25000000  1
  Li  Li2  1  0.50000000  0.50000000  0.50000000  1
  Y  Y3  1  0.00000000  0.00000000  0.00000000  1
  F  F4  1  0.74039100  0.25960800  0.25960800  1
  F  F5  1  0.25960900  0.25960900  0.74039100  1
  F  F6  1  0.25960800  0.74039100  0.74039100  1
  F  F7  1  0.25960800  0.74039100  0.25960800  1
  F  F8  1  0.74039100  0.25960800  0.74039100  1
  F  F9  1  0.74039100  0.74039100  0.25960800  1
