# generated using pymatgen
data_Sr2LiGa
_symmetry_space_group_name_H-M   'P 1'
_cell_length_a   12.87262574
_cell_length_b   12.87262574
_cell_length_c   12.87262574
_cell_angle_alpha   120.95397099
_cell_angle_beta   117.09531254
_cell_angle_gamma   91.72937055
_symmetry_Int_Tables_number   1
_chemical_formula_structural   Sr2LiGa
_chemical_formula_sum   'Sr2 Li1 Ga1'
_cell_volume   1527.68702688
_cell_formula_units_Z   1
loop_
 _symmetry_equiv_pos_site_id
 _symmetry_equiv_pos_as_xyz
  1  'x, y, z'
loop_
 _atom_site_type_symbol
 _atom_site_label
 _atom_site_symmetry_multiplicity
 _atom_site_fract_x
 _atom_site_fract_y
 _atom_site_fract_z
 _atom_site_occupancy
  Sr  Sr0  1  0.26531200  0.00000000  0.26531100  1
  Sr  Sr1  1  0.73468900  0.00000000  0.73468900  1
  Li  Li2  1  0.00000000  0.00000000  0.00000000  1
  Ga  Ga3  1  0.50000000  0.00000000  0.50000000  1
