# generated using pymatgen
data_LiGa2Au
_symmetry_space_group_name_H-M   'P 1'
_cell_length_a   10.46065430
_cell_length_b   10.46065430
_cell_length_c   10.46065430
_cell_angle_alpha   120.57520288
_cell_angle_beta   119.71340410
_cell_angle_gamma   89.75186760
_symmetry_Int_Tables_number   1
_chemical_formula_structural   LiGa2Au
_chemical_formula_sum   'Li1 Ga2 Au1'
_cell_volume   807.56590330
_cell_formula_units_Z   1
loop_
 _symmetry_equiv_pos_site_id
 _symmetry_equiv_pos_as_xyz
  1  'x, y, z'
loop_
 _atom_site_type_symbol
 _atom_site_label
 _atom_site_symmetry_multiplicity
 _atom_site_fract_x
 _atom_site_fract_y
 _atom_site_fract_z
 _atom_site_occupancy
  Li  Li0  1  0.00000000  0.00000000  0.00000000  1
  Ga  Ga1  1  0.00000000  0.25935200  0.25935200  1
  Ga  Ga2  1  0.00000000  0.74064800  0.74064800  1
  Au  Au3  1  0.00000000  0.50000000  0.50000000  1
